MastesRls/DataRaw/IEEE300.raw
0,   100.00
IEEE Test System, 300 Buses, 69 Generators          / PSS/E-30.0    
Created by College of Electrical Engineering, Zhejiang University, Mon 27 Jun 2011 14:39:13
     1,  'Bus-1   ',  100,  1,    0,     0,     1,  1,  1.028,  5.9494,  1
     2,  'Bus-2   ',  100,  1,    0,     0,     1,  1,  1.035,  7.7367,  1
     3,  'Bus-3   ',  100,  1,    0,     0,     1,  1,  0.997,  6.6384,  1
     4,  'Bus-4   ',  100,  1,    0,     0,     1,  1,  1.030,  4.7079,  1
     5,  'Bus-5   ',  100,  1,    0,     0,     1,  1,  1.019,  4.6835,  1
     6,  'Bus-6   ',  100,  1,    0,     0,     1,  1,  1.031,  6.9878,  1
     7,  'Bus-7   ',  100,  1,    0,     0,     1,  1,  0.993,  6.1875,  1
     8,  'Bus-8   ',  100,  2,    0,     0,     1,  1,  1.015,  2.3969,  1
     9,  'Bus-9   ',  100,  1,    0,     0,     1,  1,  1.003,  2.8535,  1
    10,  'Bus-10  ',  100,  2,    0,     0,     1,  1,  1.020,  1.3467,  1
    11,  'Bus-11  ',  100,  1,    0,     0,     1,  1,  1.005,  2.4645,  1
    12,  'Bus-12  ',  100,  1,    0,     0,     1,  1,  0.997,  5.2141,  1
    13,  'Bus-13  ',  100,  1,    0,     0,     1,  1,  0.997,  -0.552,  1
    14,  'Bus-14  ',  100,  1,    0,     0,     1,  1,  0.999,  -4.814,  1
    15,  'Bus-15  ',  100,  1,    0,     0,     1,  1,  1.034,  -8.586,  1
    16,  'Bus-16  ',  100,  1,    0,     0,     1,  1,  1.031,  -2.649,  1
    17,  'Bus-17  ',  100,  1,    0,     0,     1,  1,  1.064,  -13.10,  1
    19,  'Bus-19  ',  100,  1,    0,     0,     1,  1,  0.981,  1.0808,  1
    20,  'Bus-20  ',  100,  2,    0,     0,     1,  1,  1.001,  -2.460,  1
    21,  'Bus-21  ',  100,  1,    0,     0,     1,  1,  0.975,  1.6212,  1
    22,  'Bus-22  ',  100,  1,    0,     0,     1,  1,  0.996,  -1.973,  1
    23,  'Bus-23  ',  100,  1,    0,     0,     1,  1,  1.050,  3.9380,  1
    24,  'Bus-24  ',  100,  1,    0,     0,     1,  1,  1.005,  6.0200,  1
    25,  'Bus-25  ',  100,  1,    0,     0,     1,  1,  1.023,  1.4393,  1
    26,  'Bus-26  ',  100,  1,    0,     0,     1,  1,  0.998,  -1.734,  1
    27,  'Bus-27  ',  100,  1,    0,     0,     1,  1,  0.975,  -4.896,  1
    33,  'Bus-33  ',  100,  1,    0,     0,     1,  1,  1.024,  -12.02,  1
    34,  'Bus-34  ',  100,  1,    0,     0,     1,  1,  1.041,  -7.937,  1
    35,  'Bus-35  ',  100,  1,    0,     0,     1,  1,  0.975,  -25.72,  1
    36,  'Bus-36  ',  100,  1,    0,     0,     1,  1,  1.001,  -22.59,  1
    37,  'Bus-37  ',  100,  1,    0,     0,     1,  1,  1.020,  -11.23,  1
    38,  'Bus-38  ',  100,  1,    0,     0,     1,  1,  1.020,  -12.56,  1
    39,  'Bus-39  ',  100,  1,    0,     0,     1,  1,  1.053,  -5.811,  1
    40,  'Bus-40  ',  100,  1,    0,     0,     1,  1,  1.021,  -12.77,  1
    41,  'Bus-41  ',  100,  1,    0,     0,     1,  1,  1.029,  -10.44,  1
    42,  'Bus-42  ',  100,  1,    0,     0,     1,  1,  1.044,  -7.444,  1
    43,  'Bus-43  ',  100,  1,    0,     0,     1,  1,  1.000,  -16.78,  1
    44,  'Bus-44  ',  100,  1,    0,     0,     1,  1,  1.008,  -17.46,  1
    45,  'Bus-45  ',  100,  1,    0,     0,     1,  1,  1.021,  -14.73,  1
    46,  'Bus-46  ',  100,  1,    0,     0,     1,  1,  1.034,  -11.75,  1
    47,  'Bus-47  ',  100,  1,    0,     0,     1,  1,  0.977,  -23.16,  1
    48,  'Bus-48  ',  100,  1,    0,     0,     1,  1,  1.001,  -16.09,  1
    49,  'Bus-49  ',  100,  1,    0,     0,     1,  1,  1.047,  -2.948,  1
    51,  'Bus-51  ',  100,  1,    0,     0,     1,  1,  1.025,  -8.151,  1
    52,  'Bus-52  ',  100,  1,    0,     0,     1,  1,  0.997,  -11.86,  1
    53,  'Bus-53  ',  100,  1,    0,     0,     1,  1,  0.995,  -17.60,  1
    54,  'Bus-54  ',  100,  1,    0,     0,     1,  1,  1.005,  -16.25,  1
    55,  'Bus-55  ',  100,  1,    0,     0,     1,  1,  1.015,  -12.21,  1
    57,  'Bus-57  ',  100,  1,    0,     0,     1,  1,  1.033,  -7.998,  1
    58,  'Bus-58  ',  100,  1,    0,     0,     1,  1,  0.991,  -5.992,  1
    59,  'Bus-59  ',  100,  1,    0,     0,     1,  1,  0.978,  -5.286,  1
    60,  'Bus-60  ',  100,  1,    0,     0,     1,  1,  1.024,  -9.557,  1
    61,  'Bus-61  ',  100,  1,    0,     0,     1,  1,  0.990,  -3.467,  1
    62,  'Bus-62  ',  100,  1,    0,     0,     1,  1,  1.016,  -1.097,  1
    63,  'Bus-63  ',  100,  2,    0,     0,     1,  1,  0.958,  -17.62,  1
    64,  'Bus-64  ',  100,  1,    0,     0,     1,  1,  0.947,  -12.97,  1
    69,  'Bus-69  ',  100,  1,    0,     0,     1,  1,  0.963,  -25.66,  1
    70,  'Bus-70  ',  100,  1,    0,     0,     1,  1,  0.951,  -35.15,  1
    71,  'Bus-71  ',  100,  1,    0,     0,     1,  1,  0.979,  -29.87,  1
    72,  'Bus-72  ',  100,  1,    0,     0,     1,  1,  0.969,  -27.47,  1
    73,  'Bus-73  ',  100,  1,    0,     0,     1,  1,  0.977,  -25.76,  1
    74,  'Bus-74  ',  100,  1,    0,     0,     1,  1,  0.996,  -22.00,  1
    76,  'Bus-76  ',  100,  2,    0,     0,     1,  1,  0.963,  -26.54,  1
    77,  'Bus-77  ',  100,  1,    0,     0,     1,  1,  0.983,  -24.94,  1
    78,  'Bus-78  ',  100,  1,    0,     0,     1,  1,  0.990,  -24.05,  1
    79,  'Bus-79  ',  100,  1,    0,     0,     1,  1,  0.982,  -24.97,  1
    80,  'Bus-80  ',  100,  1,    0,     0,     1,  1,  0.987,  -24.97,  1
    81,  'Bus-81  ',  100,  1,    0,     0,     1,  1,  1.034,  -18.88,  1
    84,  'Bus-84  ',  100,  2,    0,     0,     1,  1,  1.025,  -17.16,  1
    85,  'Bus-85  ',  100,  1,    0,     0,     1,  1,  0.987,  -17.67,  1
    86,  'Bus-86  ',  100,  1,    0,     0,     1,  1,  0.990,  -14.18,  1
    87,  'Bus-87  ',  100,  1,    0,     0,     1,  1,  0.992,  -7.765,  1
    88,  'Bus-88  ',  100,  1,    0,     0,     1,  1,  1.015,  -20.95,  1
    89,  'Bus-89  ',  100,  1,    0,     0,     1,  1,  1.031,  -11.13,  1
    90,  'Bus-90  ',  100,  1,    0,     0,     1,  1,  1.027,  -11.22,  1
    91,  'Bus-91  ',  100,  2,    0,     0,     1,  1,  1.052,  -9.402,  1
    92,  'Bus-92  ',  100,  2,    0,     0,     1,  1,  1.052,  -6.198,  1
    94,  'Bus-94  ',  100,  1,    0,     0,     1,  1,  0.993,  -9.419,  1
    97,  'Bus-97  ',  100,  1,    0,     0,     1,  1,  1.018,  -13.23,  1
    98,  'Bus-98  ',  100,  2,    0,     0,     1,  1,  1.000,  -14.60,  1
    99,  'Bus-99  ',  100,  1,    0,     0,     1,  1,  0.989,  -20.26,  1
   100,  'Bus-100 ',  100,  1,    0,     0,     1,  1,  1.006,  -14.44,  1
   102,  'Bus-102 ',  100,  1,    0,     0,     1,  1,  1.000,  -15.23,  1
   103,  'Bus-103 ',  100,  1,    0,     0,     1,  1,  1.028,  -12.06,  1
   104,  'Bus-104 ',  100,  1,    0,     0,     1,  1,  0.995,  -17.32,  1
   105,  'Bus-105 ',  100,  1,    0,     0,     1,  1,  1.022,  -12.94,  1
   107,  'Bus-107 ',  100,  1,    0,     0,     1,  1,  1.009,  -16.02,  1
   108,  'Bus-108 ',  100,  2,    0,     0,     1,  1,  0.990,  -20.25,  1
   109,  'Bus-109 ',  100,  1,    0,     0,     1,  1,  0.974,  -26.06,  1
   110,  'Bus-110 ',  100,  1,    0,     0,     1,  1,  0.973,  -24.72,  1
   112,  'Bus-112 ',  100,  1,    0,     0,     1,  1,  0.972,  -28.69,  1
   113,  'Bus-113 ',  100,  1,    0,     0,     1,  1,  0.970,  -25.38,  1
   114,  'Bus-114 ',  100,  1,    0,     0,     1,  1,  0.974,  -28.58,  1
   115,  'Bus-115 ',  100,  1,    0,     0,     1,  1,  0.960,  -13.57,  1
   116,  'Bus-116 ',  100,  1,    0,     0,     1,  1,  1.024,  -12.68,  1
   117,  'Bus-117 ',  100,  1,    0,     325,   1,  1,  0.934,  -4.720,  1
   118,  'Bus-118 ',  100,  1,    0,     0,     1,  1,  0.929,  -4.123,  1
   119,  'Bus-119 ',  100,  2,    0,     0,     1,  1,  1.043,  5.1658,  1
   120,  'Bus-120 ',  100,  1,    0,     55,    1,  1,  0.958,  -8.770,  1
   121,  'Bus-121 ',  100,  1,    0,     0,     1,  1,  0.987,  -12.63,  1
   122,  'Bus-122 ',  100,  1,    0,     0,     1,  1,  0.972,  -14.36,  1
   123,  'Bus-123 ',  100,  1,    0,     0,     1,  1,  1.000,  -17.63,  1
   124,  'Bus-124 ',  100,  2,    0,     0,     1,  1,  1.023,  -13.48,  1
   125,  'Bus-125 ',  100,  2,    0,     0,     1,  1,  1.010,  -18.42,  1
   126,  'Bus-126 ',  100,  1,    0,     0,     1,  1,  0.997,  -12.86,  1
   127,  'Bus-127 ',  100,  1,    0,     0,     1,  1,  1.000,  -10.52,  1
   128,  'Bus-128 ',  100,  1,    0,     0,     1,  1,  1.002,  -4.777,  1
   129,  'Bus-129 ',  100,  1,    0,     0,     1,  1,  1.002,  -4.398,  1
   130,  'Bus-130 ',  100,  1,    0,     0,     1,  1,  1.019,  5.5584,  1
   131,  'Bus-131 ',  100,  1,    0,     0,     1,  1,  0.986,  6.0552,  1
   132,  'Bus-132 ',  100,  1,    0,     0,     1,  1,  1.004,  3.0442,  1
   133,  'Bus-133 ',  100,  1,    0,     0,     1,  1,  1.002,  -5.460,  1
   134,  'Bus-134 ',  100,  1,    0,     0,     1,  1,  1.022,  -8.044,  1
   135,  'Bus-135 ',  100,  1,    0,     0,     1,  1,  1.019,  -6.755,  1
   136,  'Bus-136 ',  100,  1,    0,     0,     1,  1,  1.047,  1.5407,  1
   137,  'Bus-137 ',  100,  1,    0,     0,     1,  1,  1.047,  -1.454,  1
   138,  'Bus-138 ',  100,  2,    0,     0,     1,  1,  1.055,  -6.353,  1
   139,  'Bus-139 ',  100,  1,    0,     0,     1,  1,  1.011,  -3.568,  1
   140,  'Bus-140 ',  100,  1,    0,     0,     1,  1,  1.043,  -3.435,  1
   141,  'Bus-141 ',  100,  2,    0,     0,     1,  1,  1.051,  0.0495,  1
   142,  'Bus-142 ',  100,  1,    0,     0,     1,  1,  1.015,  -2.768,  1
   143,  'Bus-143 ',  100,  2,    0,     0,     1,  1,  1.043,  4.0331,  1
   144,  'Bus-144 ',  100,  1,    0,     0,     1,  1,  1.016,  -0.695,  1
   145,  'Bus-145 ',  100,  1,    0,     0,     1,  1,  1.008,  -0.156,  1
   146,  'Bus-146 ',  100,  2,    0,     0,     1,  1,  1.052,  4.3212,  1
   147,  'Bus-147 ',  100,  2,    0,     0,     1,  1,  1.052,  8.3635,  1
   148,  'Bus-148 ',  100,  1,    0,     0,     1,  1,  1.057,  0.2778,  1
   149,  'Bus-149 ',  100,  2,    0,     0,     1,  1,  1.073,  5.2293,  1
   150,  'Bus-150 ',  100,  1,    0,     0,     1,  1,  0.986,  6.3363,  1
   151,  'Bus-151 ',  100,  1,    0,     0,     1,  1,  1.004,  4.1310,  1
   152,  'Bus-152 ',  100,  2,    0,     0,     1,  1,  1.053,  9.2416,  1
   153,  'Bus-153 ',  100,  2,    0,     0,     1,  1,  1.043,  10.461,  1
   154,  'Bus-154 ',  100,  1,    0,     34.5,  1,  1,  0.966,  -1.798,  1
   155,  'Bus-155 ',  100,  1,    0,     0,     1,  1,  1.017,  6.7514,  1
   156,  'Bus-156 ',  100,  2,    0,     0,     1,  1,  0.963,  5.1460,  1
   157,  'Bus-157 ',  100,  1,    0,     0,     1,  1,  0.984,  -11.92,  1
   158,  'Bus-158 ',  100,  1,    0,     0,     1,  1,  0.998,  -11.40,  1
   159,  'Bus-159 ',  100,  1,    0,     0,     1,  1,  0.986,  -9.819,  1
   160,  'Bus-160 ',  100,  1,    0,     0,     1,  1,  0.999,  -12.55,  1
   161,  'Bus-161 ',  100,  1,    0,     0,     1,  1,  1.036,  8.8443,  1
   162,  'Bus-162 ',  100,  1,    0,     0,     1,  1,  0.991,  18.500,  1
   163,  'Bus-163 ',  100,  1,    0,     0,     1,  1,  1.041,  2.9065,  1
   164,  'Bus-164 ',  100,  1,    0,     -212,  1,  1,  0.984,  9.6612,  1
   165,  'Bus-165 ',  100,  1,    0,     0,     1,  1,  1.000,  26.307,  1
   166,  'Bus-166 ',  100,  1,    0,     -103,  1,  1,  0.997,  30.219,  1
   167,  'Bus-167 ',  100,  1,    0,     0,     1,  1,  0.971,  -6.906,  1
   168,  'Bus-168 ',  100,  1,    0,     0,     1,  1,  1.002,  -4.800,  1
   169,  'Bus-169 ',  100,  1,    0,     0,     1,  1,  0.987,  -6.677,  1
   170,  'Bus-170 ',  100,  2,    0,     0,     1,  1,  0.928,  0.0878,  1
   171,  'Bus-171 ',  100,  2,    0,     0,     1,  1,  0.982,  -9.935,  1
   172,  'Bus-172 ',  100,  1,    0,     0,     1,  1,  1.024,  -6.223,  1
   173,  'Bus-173 ',  100,  1,    0,     53,    1,  1,  0.983,  -12.75,  1
   174,  'Bus-174 ',  100,  1,    0,     0,     1,  1,  1.062,  -2.690,  1
   175,  'Bus-175 ',  100,  1,    0,     0,     1,  1,  0.973,  -7.207,  1
   176,  'Bus-176 ',  100,  2,    0,     0,     1,  1,  1.052,  4.6644,  1
   177,  'Bus-177 ',  100,  2,    0,     0,     1,  1,  1.007,  0.6186,  1
   178,  'Bus-178 ',  100,  1,    0,     0,     1,  1,  0.939,  -6.564,  1
   179,  'Bus-179 ',  100,  1,    0,     45,    1,  1,  0.969,  -9.364,  1
   180,  'Bus-180 ',  100,  1,    0,     0,     1,  1,  0.979,  -3.092,  1
   181,  'Bus-181 ',  100,  1,    0,     0,     1,  1,  1.051,  -1.325,  1
   182,  'Bus-182 ',  100,  1,    0,     0,     1,  1,  1.044,  -4.188,  1
   183,  'Bus-183 ',  100,  1,    0,     0,     1,  1,  0.971,  7.1225,  1
   184,  'Bus-184 ',  100,  1,    0,     0,     1,  1,  1.038,  -6.846,  1
   185,  'Bus-185 ',  100,  2,    0,     0,     1,  1,  1.052,  -4.331,  1
   186,  'Bus-186 ',  100,  2,    0,     0,     1,  1,  1.065,  2.1718,  1
   187,  'Bus-187 ',  100,  2,    0,     0,     1,  1,  1.065,  1.3964,  1
   188,  'Bus-188 ',  100,  1,    0,     0,     1,  1,  1.053,  -0.723,  1
   189,  'Bus-189 ',  100,  1,    0,     0,     1,  1,  0.997,  -25.84,  1
   190,  'Bus-190 ',  100,  2,    0,     -150,  1,  1,  1.055,  -20.61,  1
   191,  'Bus-191 ',  100,  2,    0,     0,     1,  1,  1.043,  12.248,  1
   192,  'Bus-192 ',  100,  1,    0,     0,     1,  1,  0.937,  -11.18,  1
   193,  'Bus-193 ',  100,  1,    0,     0,     1,  1,  0.989,  -26.09,  1
   194,  'Bus-194 ',  100,  1,    0,     0,     1,  1,  1.048,  -19.21,  1
   195,  'Bus-195 ',  100,  1,    0,     0,     1,  1,  1.035,  -20.78,  1
   196,  'Bus-196 ',  100,  1,    0,     0,     1,  1,  0.969,  -25.31,  1
   197,  'Bus-197 ',  100,  1,    0,     0,     1,  1,  0.990,  -23.71,  1
   198,  'Bus-198 ',  100,  2,    0,     0,     1,  1,  1.015,  -20.58,  1
   199,  'Bus-199 ',  100,  1,    0,     0,     1,  1,  0.952,  -26.04,  1
   200,  'Bus-200 ',  100,  1,    0,     0,     1,  1,  0.955,  -25.93,  1
   201,  'Bus-201 ',  100,  1,    0,     0,     1,  1,  0.969,  -27.48,  1
   202,  'Bus-202 ',  100,  1,    0,     0,     1,  1,  0.990,  -25.33,  1
   203,  'Bus-203 ',  100,  1,    0,     0,     1,  1,  1.003,  -22.35,  1
   204,  'Bus-204 ',  100,  1,    0,     0,     1,  1,  0.971,  -25.70,  1
   205,  'Bus-205 ',  100,  1,    0,     0,     1,  1,  0.983,  -26.06,  1
   206,  'Bus-206 ',  100,  1,    0,     0,     1,  1,  0.999,  -27.41,  1
   207,  'Bus-207 ',  100,  1,    0,     0,     1,  1,  1.013,  -27.44,  1
   208,  'Bus-208 ',  100,  1,    0,     0,     1,  1,  0.992,  -26.27,  1
   209,  'Bus-209 ',  100,  1,    0,     0,     1,  1,  1.000,  -25.65,  1
   210,  'Bus-210 ',  100,  1,    0,     0,     1,  1,  0.978,  -24.22,  1
   211,  'Bus-211 ',  100,  1,    0,     0,     1,  1,  1.001,  -23.31,  1
   212,  'Bus-212 ',  100,  1,    0,     0,     1,  1,  1.013,  -22.50,  1
   213,  'Bus-213 ',  100,  2,    0,     0,     1,  1,  1.010,  -11.67,  1
   214,  'Bus-214 ',  100,  1,    0,     0,     1,  1,  0.991,  -17.53,  1
   215,  'Bus-215 ',  100,  1,    0,     0,     1,  1,  0.986,  -20.23,  1
   216,  'Bus-216 ',  100,  1,    0,     0,     1,  1,  0.975,  -22.52,  1
   217,  'Bus-217 ',  100,  1,    0,     0,     1,  1,  1.021,  -22.19,  1
   218,  'Bus-218 ',  100,  1,    0,     0,     1,  1,  1.007,  -22.62,  1
   219,  'Bus-219 ',  100,  1,    0,     0,     1,  1,  1.055,  -21.14,  1
   220,  'Bus-220 ',  100,  2,    0,     0,     1,  1,  1.008,  -21.72,  1
   221,  'Bus-221 ',  100,  2,    0,     0,     1,  1,  1.000,  -22.48,  1
...
0 / END OF BUS DATA, BEGIN LOAD DATA
     1,  '1',  1,  1,  1,  90,        49,  0,  0,  0,  0,  1
     2,  '1',  1,  1,  1,  56,        15,  0,  0,  0,  0,  1
     3,  '1',  1,  1,  1,  20,         0,  0,  0,  0,  0,  1
     5,  '1',  1,  1,  1,  353,      130,  0,  0,  0,  0,  1
     6,  '1',  1,  1,  1,  120,       41,  0,  0,  0,  0,  1
     8,  '1',  1,  1,  1,  58,        14,  0,  0,  0,  0,  1
     9,  '1',  1,  1,  1,  96,        43,  0,  0,  0,  0,  1
    10,  '1',  1,  1,  1,  148,       33,  0,  0,  0,  0,  1
    11,  '1',  1,  1,  1,  83,        21,  0,  0,  0,  0,  1
    13,  '1',  1,  1,  1,  58,        10,  0,  0,  0,  0,  1
    14,  '1',  1,  1,  1,  160,       60,  0,  0,  0,  0,  1
    15,  '1',  1,  1,  1,  126.7,     23,  0,  0,  0,  0,  1
    17,  '1',  1,  1,  1,  561,      220,  0,  0,  0,  0,  1
    20,  '1',  1,  1,  1,  595,      120,  0,  0,  0,  0,  1
    21,  '1',  1,  1,  1,  77,         1,  0,  0,  0,  0,  1
    22,  '1',  1,  1,  1,  81,        23,  0,  0,  0,  0,  1
    23,  '1',  1,  1,  1,  21,         7,  0,  0,  0,  0,  1
    25,  '1',  1,  1,  1,  45,        12,  0,  0,  0,  0,  1
    26,  '1',  1,  1,  1,  28,         9,  0,  0,  0,  0,  1
    27,  '1',  1,  1,  1,  69,        13,  0,  0,  0,  0,  1
    33,  '1',  1,  1,  1,  55,         6,  0,  0,  0,  0,  1
    37,  '1',  1,  1,  1,  85,        32,  0,  0,  0,  0,  1
    38,  '1',  1,  1,  1,  155,       18,  0,  0,  0,  0,  1
    40,  '1',  1,  1,  1,  46,       -21,  0,  0,  0,  0,  1
    41,  '1',  1,  1,  1,  86,         0,  0,  0,  0,  0,  1
    43,  '1',  1,  1,  1,  39,         9,  0,  0,  0,  0,  1
    44,  '1',  1,  1,  1,  195,       29,  0,  0,  0,  0,  1
    47,  '1',  1,  1,  1,  58,      11.8,  0,  0,  0,  0,  1
    48,  '1',  1,  1,  1,  41,        19,  0,  0,  0,  0,  1
    49,  '1',  1,  1,  1,  92,        26,  0,  0,  0,  0,  1
    51,  '1',  1,  1,  1,  -5,         5,  0,  0,  0,  0,  1
    52,  '1',  1,  1,  1,  61,        28,  0,  0,  0,  0,  1
    53,  '1',  1,  1,  1,  69,         3,  0,  0,  0,  0,  1
    54,  '1',  1,  1,  1,  10,         1,  0,  0,  0,  0,  1
    55,  '1',  1,  1,  1,  22,        10,  0,  0,  0,  0,  1
    57,  '1',  1,  1,  1,  98,        20,  0,  0,  0,  0,  1
    58,  '1',  1,  1,  1,  14,         1,  0,  0,  0,  0,  1
    59,  '1',  1,  1,  1,  218,      106,  0,  0,  0,  0,  1
    61,  '1',  1,  1,  1,  227,      110,  0,  0,  0,  0,  1
    63,  '1',  1,  1,  1,  70,        30,  0,  0,  0,  0,  1
    70,  '1',  1,  1,  1,  56,        20,  0,  0,  0,  0,  1
    71,  '1',  1,  1,  1,  116,       38,  0,  0,  0,  0,  1
    72,  '1',  1,  1,  1,  57,        19,  0,  0,  0,  0,  1
    73,  '1',  1,  1,  1,  224,       71,  0,  0,  0,  0,  1
    76,  '1',  1,  1,  1,  208,      107,  0,  0,  0,  0,  1
    77,  '1',  1,  1,  1,  74,        28,  0,  0,  0,  0,  1
    79,  '1',  1,  1,  1,  48,        14,  0,  0,  0,  0,  1
    80,  '1',  1,  1,  1,  28,         7,  0,  0,  0,  0,  1
    84,  '1',  1,  1,  1,  37,        13,  0,  0,  0,  0,  1
    89,  '1',  1,  1,  1,  44.2,       0,  0,  0,  0,  0,  1
    90,  '1',  1,  1,  1,  66,         0,  0,  0,  0,  0,  1
    91,  '1',  1,  1,  1,  17.4,       0,  0,  0,  0,  0,  1
    92,  '1',  1,  1,  1,  15.8,       0,  0,  0,  0,  0,  1
    94,  '1',  1,  1,  1,  60.3,       0,  0,  0,  0,  0,  1
    97,  '1',  1,  1,  1,  39.9,       0,  0,  0,  0,  0,  1
    98,  '1',  1,  1,  1,  66.7,       0,  0,  0,  0,  0,  1
    99,  '1',  1,  1,  1,  83.5,       0,  0,  0,  0,  0,  1
   102,  '1',  1,  1,  1,  77.8,       0,  0,  0,  0,  0,  1
   103,  '1',  1,  1,  1,  32,         0,  0,  0,  0,  0,  1
   104,  '1',  1,  1,  1,  8.6,        0,  0,  0,  0,  0,  1
   105,  '1',  1,  1,  1,  49.6,       0,  0,  0,  0,  0,  1
   107,  '1',  1,  1,  1,  4.6,        0,  0,  0,  0,  0,  1
   108,  '1',  1,  1,  1,  112.1,      0,  0,  0,  0,  0,  1
   109,  '1',  1,  1,  1,  30.7,       0,  0,  0,  0,  0,  1
   110,  '1',  1,  1,  1,  63,         0,  0,  0,  0,  0,  1
   112,  '1',  1,  1,  1,  19.6,       0,  0,  0,  0,  0,  1
   113,  '1',  1,  1,  1,  26.2,       0,  0,  0,  0,  0,  1
   114,  '1',  1,  1,  1,  18.2,       0,  0,  0,  0,  0,  1
   118,  '1',  1,  1,  1,  14.1,     650,  0,  0,  0,  0,  1
   120,  '1',  1,  1,  1,  777,      215,  0,  0,  0,  0,  1
   121,  '1',  1,  1,  1,  535,       55,  0,  0,  0,  0,  1
   122,  '1',  1,  1,  1,  229.1,   11.8,  0,  0,  0,  0,  1
   123,  '1',  1,  1,  1,  78,       1.4,  0,  0,  0,  0,  1
   124,  '1',  1,  1,  1,  276.4,   59.3,  0,  0,  0,  0,  1
   125,  '1',  1,  1,  1,  514.8,   82.7,  0,  0,  0,  0,  1
   126,  '1',  1,  1,  1,  57.9,     5.1,  0,  0,  0,  0,  1
   127,  '1',  1,  1,  1,  380.8,     37,  0,  0,  0,  0,  1
   135,  '1',  1,  1,  1,  169.2,   41.6,  0,  0,  0,  0,  1
   136,  '1',  1,  1,  1,  55.2,    18.2,  0,  0,  0,  0,  1
   137,  '1',  1,  1,  1,  273.6,   99.8,  0,  0,  0,  0,  1
   138,  '1',  1,  1,  1,  826.7,  135.2,  0,  0,  0,  0,  1
   139,  '1',  1,  1,  1,  595,     83.3,  0,  0,  0,  0,  1
   140,  '1',  1,  1,  1,  387.7,  114.7,  0,  0,  0,  0,  1
   141,  '1',  1,  1,  1,  145,       58,  0,  0,  0,  0,  1
   142,  '1',  1,  1,  1,  56.5,    24.5,  0,  0,  0,  0,  1
   143,  '1',  1,  1,  1,  89.5,    35.5,  0,  0,  0,  0,  1
   145,  '1',  1,  1,  1,  24,        14,  0,  0,  0,  0,  1
   148,  '1',  1,  1,  1,  63,        25,  0,  0,  0,  0,  1
   152,  '1',  1,  1,  1,  17,         9,  0,  0,  0,  0,  1
   154,  '1',  1,  1,  1,  70,         5,  0,  0,  0,  0,  1
   155,  '1',  1,  1,  1,  200,       50,  0,  0,  0,  0,  1
   156,  '1',  1,  1,  1,  75,        50,  0,  0,  0,  0,  1
   157,  '1',  1,  1,  1,  123.5,  -24.3,  0,  0,  0,  0,  1
   159,  '1',  1,  1,  1,  33,      16.5,  0,  0,  0,  0,  1
   161,  '1',  1,  1,  1,  35,        15,  0,  0,  0,  0,  1
   162,  '1',  1,  1,  1,  85,        24,  0,  0,  0,  0,  1
   163,  '1',  1,  1,  1,  0,        0.4,  0,  0,  0,  0,  1
   167,  '1',  1,  1,  1,  299.9,   95.7,  0,  0,  0,  0,  1
   170,  '1',  1,  1,  1,  481.8,    205,  0,  0,  0,  0,  1
   171,  '1',  1,  1,  1,  763.6,  291.1,  0,  0,  0,  0,  1
   172,  '1',  1,  1,  1,  26.5,       0,  0,  0,  0,  0,  1
   173,  '1',  1,  1,  1,  163.5,     43,  0,  0,  0,  0,  1
   175,  '1',  1,  1,  1,  176,       83,  0,  0,  0,  0,  1
   176,  '1',  1,  1,  1,  5,          4,  0,  0,  0,  0,  1
   177,  '1',  1,  1,  1,  28,        12,  0,  0,  0,  0,  1
   178,  '1',  1,  1,  1,  427.4,  173.6,  0,  0,  0,  0,  1
   179,  '1',  1,  1,  1,  74,        29,  0,  0,  0,  0,  1
   180,  '1',  1,  1,  1,  69.5,    49.3,  0,  0,  0,  0,  1
   181,  '1',  1,  1,  1,  73.4,       0,  0,  0,  0,  0,  1
   182,  '1',  1,  1,  1,  240.7,     89,  0,  0,  0,  0,  1
   183,  '1',  1,  1,  1,  40,         4,  0,  0,  0,  0,  1
   184,  '1',  1,  1,  1,  136.8,   16.6,  0,  0,  0,  0,  1
   186,  '1',  1,  1,  1,  59.8,    24.3,  0,  0,  0,  0,  1
   187,  '1',  1,  1,  1,  59.8,    24.3,  0,  0,  0,  0,  1
   188,  '1',  1,  1,  1,  182.6,   43.6,  0,  0,  0,  0,  1
   189,  '1',  1,  1,  1,  7,          2,  0,  0,  0,  0,  1
   191,  '1',  1,  1,  1,  489,       53,  0,  0,  0,  0,  1
   192,  '1',  1,  1,  1,  800,       72,  0,  0,  0,  0,  1
   196,  '1',  1,  1,  1,  10,         3,  0,  0,  0,  0,  1
   197,  '1',  1,  1,  1,  43,        14,  0,  0,  0,  0,  1
   198,  '1',  1,  1,  1,  64,        21,  0,  0,  0,  0,  1
   199,  '1',  1,  1,  1,  35,        12,  0,  0,  0,  0,  1
   200,  '1',  1,  1,  1,  27,        12,  0,  0,  0,  0,  1
   201,  '1',  1,  1,  1,  41,        14,  0,  0,  0,  0,  1
   202,  '1',  1,  1,  1,  38,        13,  0,  0,  0,  0,  1
   203,  '1',  1,  1,  1,  42,        14,  0,  0,  0,  0,  1
   204,  '1',  1,  1,  1,  72,        24,  0,  0,  0,  0,  1
   205,  '1',  1,  1,  1,  0,         -5,  0,  0,  0,  0,  1
   206,  '1',  1,  1,  1,  12,         2,  0,  0,  0,  0,  1
   207,  '1',  1,  1,  1,  -21,    -14.2,  0,  0,  0,  0,  1
   208,  '1',  1,  1,  1,  7,          2,  0,  0,  0,  0,  1
   209,  '1',  1,  1,  1,  38,        13,  0,  0,  0,  0,  1
   211,  '1',  1,  1,  1,  96,         7,  0,  0,  0,  0,  1
   214,  '1',  1,  1,  1,  22,        16,  0,  0,  0,  0,  1
   215,  '1',  1,  1,  1,  47,        26,  0,  0,  0,  0,  1
   216,  '1',  1,  1,  1,  176,      105,  0,  0,  0,  0,  1
   217,  '1',  1,  1,  1,  100,       75,  0,  0,  0,  0,  1
   218,  '1',  1,  1,  1,  131,       96,  0,  0,  0,  0,  1
   220,  '1',  1,  1,  1,  285,      100,  0,  0,  0,  0,  1
   221,  '1',  1,  1,  1,  171,       70,  0,  0,  0,  0,  1
   222,  '1',  1,  1,  1,  328,      188,  0,  0,  0,  0,  1
   223,  '1',  1,  1,  1,  428,      232,  0,  0,  0,  0,  1
   224,  '1',  1,  1,  1,  173,       99,  0,  0,  0,  0,  1
   225,  '1',  1,  1,  1,  410,       40,  0,  0,  0,  0,  1
   227,  '1',  1,  1,  1,  538,      369,  0,  0,  0,  0,  1
   228,  '1',  1,  1,  1,  223,      148,  0,  0,  0,  0,  1
   229,  '1',  1,  1,  1,  96,        46,  0,  0,  0,  0,  1
   231,  '1',  1,  1,  1,  159,      107,  0,  0,  0,  0,  1
   232,  '1',  1,  1,  1,  448,      143,  0,  0,  0,  0,  1
   233,  '1',  1,  1,  1,  404,      212,  0,  0,  0,  0,  1
   234,  '1',  1,  1,  1,  572,      244,  0,  0,  0,  0,  1
   235,  '1',  1,  1,  1,  269,      157,  0,  0,  0,  0,  1
   238,  '1',  1,  1,  1,  255,      149,  0,  0,  0,  0,  1
   243,  '1',  1,  1,  1,  8,          3,  0,  0,  0,  0,  1
   245,  '1',  1,  1,  1,  61,        30,  0,  0,  0,  0,  1
   246,  '1',  1,  1,  1,  77,        33,  0,  0,  0,  0,  1
   247,  '1',  1,  1,  1,  61,        30,  0,  0,  0,  0,  1
   248,  '1',  1,  1,  1,  29,        14,  0,  0,  0,  0,  1
   249,  '1',  1,  1,  1,  29,        14,  0,  0,  0,  0,  1
   250,  '1',  1,  1,  1,  -23,      -17,  0,  0,  0,  0,  1
   281,  '1',  1,  1,  1,  -33.1,  -29.4,  0,  0,  0,  0,  1
   319,  '1',  1,  1,  1,  115.8,    -24,  0,  0,  0,  0,  1
   320,  '1',  1,  1,  1,  2.4,    -12.6,  0,  0,  0,  0,  1
   322,  '1',  1,  1,  1,  2.4,     -3.9,  0,  0,  0,  0,  1
   323,  '1',  1,  1,  1,  -14.9,   26.5,  0,  0,  0,  0,  1
   324,  '1',  1,  1,  1,  24.7,    -1.2,  0,  0,  0,  0,  1
   526,  '1',  1,  1,  1,  145.3,  -34.9,  0,  0,  0,  0,  1
   528,  '1',  1,  1,  1,  28.1,   -20.5,  0,  0,  0,  0,  1
   531,  '1',  1,  1,  1,  14,       2.5,  0,  0,  0,  0,  1
   552,  '1',  1,  1,  1,  -11.1,   -1.4,  0,  0,  0,  0,  1
   562,  '1',  1,  1,  1,  50.5,    17.4,  0,  0,  0,  0,  1
   609,  '1',  1,  1,  1,  29.6,     0.6,  0,  0,  0,  0,  1
   664,  '1',  1,  1,  1,  -113.7,  76.7,  0,  0,  0,  0,  1
  1190,  '1',  1,  1,  1,  100.31, 29.17,  0,  0,  0,  0,  1
  1200,  '1',  1,  1,  1,  -100,   34.17,  0,  0,  0,  0,  1
  9003,  '1',  1,  1,  1,  2.71,    0.94,  0,  0,  0,  0,  1
  9004,  '1',  1,  1,  1,  0.86,    0.28,  0,  0,  0,  0,  1
  9021,  '1',  1,  1,  1,  4.75,    1.56,  0,  0,  0,  0,  1
  9022,  '1',  1,  1,  1,  1.53,    0.53,  0,  0,  0,  0,  1
  9024,  '1',  1,  1,  1,  1.35,    0.47,  0,  0,  0,  0,  1
  9025,  '1',  1,  1,  1,  0.45,    0.16,  0,  0,  0,  0,  1
  9026,  '1',  1,  1,  1,  0.45,    0.16,  0,  0,  0,  0,  1
  9031,  '1',  1,  1,  1,  1.84,    0.64,  0,  0,  0,  0,  1
  9032,  '1',  1,  1,  1,  1.39,    0.48,  0,  0,  0,  0,  1
  9033,  '1',  1,  1,  1,  1.89,    0.65,  0,  0,  0,  0,  1
  9034,  '1',  1,  1,  1,  1.55,    0.54,  0,  0,  0,  0,  1
  9035,  '1',  1,  1,  1,  1.66,    0.58,  0,  0,  0,  0,  1
  9036,  '1',  1,  1,  1,  3.03,       1,  0,  0,  0,  0,  1
  9037,  '1',  1,  1,  1,  1.86,    0.64,  0,  0,  0,  0,  1
  9038,  '1',  1,  1,  1,  2.58,    0.89,  0,  0,  0,  0,  1
  9041,  '1',  1,  1,  1,  1.01,    0.35,  0,  0,  0,  0,  1
  9042,  '1',  1,  1,  1,  0.81,    0.28,  0,  0,  0,  0,  1
  9043,  '1',  1,  1,  1,  1.6,     0.52,  0,  0,  0,  0,  1
  9052,  '1',  1,  1,  1,  30,        23,  0,  0,  0,  0,  1
  9071,  '1',  1,  1,  1,  1.02,    0.35,  0,  0,  0,  0,  1
  9072,  '1',  1,  1,  1,  1.02,    0.35,  0,  0,  0,  0,  1
  9121,  '1',  1,  1,  1,  3.8,     1.25,  0,  0,  0,  0,  1
  9533,  '1',  1,  1,  1,  1.19,    0.41,  0,  0,  0,  0,  1
0 / END OF LOAD DATA, BEGIN GENERATOR DATA
     8,  '1',  -5,       9.9416,    10,      -10,      1.0153,  0,  100,  0,  1,  0,  0,  1,  1,  100,  9999,  -9999,  1,  1
    10,  '1',  -5,       20.0449,   20,      -20,      1.0205,  0,  100,  0,  1,  0,  0,  1,  1,  100,  9999,  -9999,  1,  1
    20,  '1',  -10,      20,        20,      -20,      1.001,   0,  100,  0,  1,  0,  0,  1,  1,  100,  9999,  -9999,  1,  1
    63,  '1',  0,        25.0016,   25,      -25,      0.9583,  0,  100,  0,  1,  0,  0,  1,  1,  100,  9999,  -9999,  1,  1
    76,  '1',  0,        34.8462,   35,      12,       0.9632,  0,  100,  0,  1,  0,  0,  1,  1,  100,  9999,  -9999,  1,  1
    84,  '1',  375,      133.07,    240,     -240,     1.025,   0,  100,  0,  1,  0,  0,  1,  1,  100,  9999,  -9999,  1,  1
    91,  '1',  155,      43.9316,   96,      -11,      1.052,   0,  100,  0,  1,  0,  0,  1,  1,  100,  9999,  -9999,  1,  1
    92,  '1',  290,      30.9622,   153,     -153,     1.052,   0,  100,  0,  1,  0,  0,  1,  1,  100,  9999,  -9999,  1,  1
    98,  '1',  68,       -10.7786,  56,      -30,      1,       0,  100,  0,  1,  0,  0,  1,  1,  100,  9999,  -9999,  1,  1
   108,  '1',  117,      20.4165,   77,      -24,      0.99,    0,  100,  0,  1,  0,  0,  1,  1,  100,  9999,  -9999,  1,  1
   119,  '1',  1930,     1050.71,   1500,    -500,     1.0435,  0,  100,  0,  1,  0,  0,  1,  1,  100,  9999,  -9999,  1,  1
   124,  '1',  240,      119.952,   120,     -60,      1.0233,  0,  100,  0,  1,  0,  0,  1,  1,  100,  9999,  -9999,  1,  1
   125,  '1',  0,        199.879,   200,     -25,      1.0103,  0,  100,  0,  1,  0,  0,  1,  1,  100,  9999,  -9999,  1,  1
   138,  '1',  -192.5,   228.613,   350,     -125,     1.055,   0,  100,  0,  1,  0,  0,  1,  1,  100,  9999,  -9999,  1,  1
   141,  '1',  281,      65.097,    75,      -50,      1.051,   0,  100,  0,  1,  0,  0,  1,  1,  100,  9999,  -9999,  1,  1
   143,  '1',  696,      123.83,    300,     -100,     1.0435,  0,  100,  0,  1,  0,  0,  1,  1,  100,  9999,  -9999,  1,  1
   146,  '1',  84,       34.9979,   35,      -15,      1.0528,  0,  100,  0,  1,  0,  0,  1,  1,  100,  9999,  -9999,  1,  1
   147,  '1',  217,      -49.9655,  100,     -50,      1.0528,  0,  100,  0,  1,  0,  0,  1,  1,  100,  9999,  -9999,  1,  1
   149,  '1',  103,      49.9686,   50,      -25,      1.0735,  0,  100,  0,  1,  0,  0,  1,  1,  100,  9999,  -9999,  1,  1
   152,  '1',  372,      -49.9257,  175,     -50,      1.0535,  0,  100,  0,  1,  0,  0,  1,  1,  100,  9999,  -9999,  1,  1
   153,  '1',  216,      -23.8674,  90,      -50,      1.0435,  0,  100,  0,  1,  0,  0,  1,  1,  100,  9999,  -9999,  1,  1
   156,  '1',  0,        14.9415,   15,      -10,      0.963,   0,  100,  0,  1,  0,  0,  1,  1,  100,  9999,  -9999,  1,  1
   170,  '1',  205,      90,        90,      -40,      0.929,   0,  100,  0,  1,  0,  0,  1,  1,  100,  9999,  -9999,  1,  1
   171,  '1',  0,        150,       150,     -50,      0.9829,  0,  100,  0,  1,  0,  0,  1,  1,  100,  9999,  -9999,  1,  1
   176,  '1',  228,      39.7162,   90,      -45,      1.0522,  0,  100,  0,  1,  0,  0,  1,  1,  100,  9999,  -9999,  1,  1
   177,  '1',  84,       34.9898,   35,      -15,      1.0077,  0,  100,  0,  1,  0,  0,  1,  1,  100,  9999,  -9999,  1,  1
   185,  '1',  200,      33.2718,   80,      -50,      1.0522,  0,  100,  0,  1,  0,  0,  1,  1,  100,  9999,  -9999,  1,  1
   186,  '1',  1200,     237.267,   400,     -100,     1.065,   0,  100,  0,  1,  0,  0,  1,  1,  100,  9999,  -9999,  1,  1
   187,  '1',  1200,     278.323,   400,     -100,     1.065,   0,  100,  0,  1,  0,  0,  1,  1,  100,  9999,  -9999,  1,  1
   190,  '1',  475,      -66.3441,  300,     -300,     1.0551,  0,  100,  0,  1,  0,  0,  1,  1,  100,  9999,  -9999,  1,  1
   191,  '1',  1973,     692.073,   1000,    -1000,    1.0435,  0,  100,  0,  1,  0,  0,  1,  1,  100,  9999,  -9999,  1,  1
   198,  '1',  424,      100.982,   260,     -260,     1.015,   0,  100,  0,  1,  0,  0,  1,  1,  100,  9999,  -9999,  1,  1
   213,  '1',  272,      44.0506,   150,     -150,     1.01,    0,  100,  0,  1,  0,  0,  1,  1,  100,  9999,  -9999,  1,  1
   220,  '1',  100,      35.7841,   60,      -60,      1.008,   0,  100,  0,  1,  0,  0,  1,  1,  100,  9999,  -9999,  1,  1
   221,  '1',  450,      160.341,   320,     -320,     1,       0,  100,  0,  1,  0,  0,  1,  1,  100,  9999,  -9999,  1,  1
   222,  '1',  250,      161.416,   300,     -300,     1.05,    0,  100,  0,  1,  0,  0,  1,  1,  100,  9999,  -9999,  1,  1
   227,  '1',  303,      262.982,   300,     -300,     1,       0,  100,  0,  1,  0,  0,  1,  1,  100,  9999,  -9999,  1,  1
   230,  '1',  345,      42.5648,   250,     -250,     1.04,    0,  100,  0,  1,  0,  0,  1,  1,  100,  9999,  -9999,  1,  1
   233,  '1',  300,      132.555,   500,     -500,     1,       0,  100,  0,  1,  0,  0,  1,  1,  100,  9999,  -9999,  1,  1
   236,  '1',  600,      300,       300,     -300,     1.0165,  0,  100,  0,  1,  0,  0,  1,  1,  100,  9999,  -9999,  1,  1
   238,  '1',  250,      164.139,   200,     -200,     1.01,    0,  100,  0,  1,  0,  0,  1,  1,  100,  9999,  -9999,  1,  1
   239,  '1',  550,      68.3848,   400,     -400,     1,       0,  100,  0,  1,  0,  0,  1,  1,  100,  9999,  -9999,  1,  1
   241,  '1',  575.43,   -35.3417,  600,     -600,     1.05,    0,  100,  0,  1,  0,  0,  1,  1,  100,  9999,  -9999,  1,  1
   242,  '1',  170,      52.1268,   100,     40,       0.993,   0,  100,  0,  1,  0,  0,  1,  1,  100,  9999,  -9999,  1,  1
   243,  '1',  84,       52.3251,   80,      40,       1.01,    0,  100,  0,  1,  0,  0,  1,  1,  100,  9999,  -9999,  1,  1
  7001,  '1',  467,      139.67,    210,     -210,     1.0507,  0,  100,  0,  1,  0,  0,  1,  1,  100,  9999,  -9999,  1,  1
  7002,  '1',  623,      93.4747,   280,     -280,     1.0507,  0,  100,  0,  1,  0,  0,  1,  1,  100,  9999,  -9999,  1,  1
  7003,  '1',  1210,     420,       420,     -420,     1.0323,  0,  100,  0,  1,  0,  0,  1,  1,  100,  9999,  -9999,  1,  1
  7011,  '1',  234,      51.8502,   100,     -100,     1.0145,  0,  100,  0,  1,  0,  0,  1,  1,  100,  9999,  -9999,  1,  1
  7012,  '1',  372,      200.298,   224,     -224,     1.0507,  0,  100,  0,  1,  0,  0,  1,  1,  100,  9999,  -9999,  1,  1
  7017,  '1',  330,      348.159,   350,     0,        1.0507,  0,  100,  0,  1,  0,  0,  1,  1,  100,  9999,  -9999,  1,  1
  7023,  '1',  185,      6.35331,   120,     0,        1.0507,  0,  100,  0,  1,  0,  0,  1,  1,  100,  9999,  -9999,  1,  1
  7024,  '1',  410,      106.694,   224,     -224,     1.029,   0,  100,  0,  1,  0,  0,  1,  1,  100,  9999,  -9999,  1,  1
  7039,  '1',  500,      153.611,   200,     -200,     1.05,    0,  100,  0,  1,  0,  0,  1,  1,  100,  9999,  -9999,  1,  1
  7044,  '1',  37,       41.6441,   42,      0,        1.0145,  0,  100,  0,  1,  0,  0,  1,  1,  100,  9999,  -9999,  1,  1
  7049,  '1',  456.627,  0.99533,   999900,  -99990,   1.0507,  0,  100,  0,  1,  0,  0,  1,  1,  100,  9999,  -9999,  1,  1
  7055,  '1',  45,       25,        25,      0,        0.9967,  0,  100,  0,  1,  0,  0,  1,  1,  100,  9999,  -9999,  1,  1
  7057,  '1',  165,      89.9407,   90,      -90,      1.0212,  0,  100,  0,  1,  0,  0,  1,  1,  100,  9999,  -9999,  1,  1
  7061,  '1',  400,      120.696,   150,     -150,     1.0145,  0,  100,  0,  1,  0,  0,  1,  1,  100,  9999,  -9999,  1,  1
  7062,  '1',  400,      150,       150,     0,        1.0017,  0,  100,  0,  1,  0,  0,  1,  1,  100,  9999,  -9999,  1,  1
  7071,  '1',  116,      87.0098,   87,      0,        0.9893,  0,  100,  0,  1,  0,  0,  1,  1,  100,  9999,  -9999,  1,  1
  7130,  '1',  1292,     324.535,   600,     -100,     1.0507,  0,  100,  0,  1,  0,  0,  1,  1,  100,  9999,  -9999,  1,  1
  7139,  '1',  700,      283.925,   325,     -125,     1.0507,  0,  100,  0,  1,  0,  0,  1,  1,  100,  9999,  -9999,  1,  1
  7166,  '1',  553,      136.862,   300,     -200,     1.0145,  0,  100,  0,  1,  0,  0,  1,  1,  100,  9999,  -9999,  1,  1
  9002,  '1',  -4.2,     2,         2,       -2,       0.9945,  0,  100,  0,  1,  0,  0,  1,  1,  100,  9999,  -9999,  1,  1
  9051,  '1',  -35.81,   12.2162,   17.35,   -17.35,   1,       0,  100,  0,  1,  0,  0,  1,  1,  100,  9999,  -9999,  1,  1
  9053,  '1',  -26.48,   11.1865,   12.83,   -12.8,    1,       0,  100,  0,  1,  0,  0,  1,  1,  100,  9999,  -9999,  1,  1
  9054,  '1',  50,       22.0502,   38,      -38,      1,       0,  100,  0,  1,  0,  0,  1,  1,  100,  9999,  -9999,  1,  1
  9055,  '1',  8,        4.08095,   6,       -6,       1,       0,  100,  0,  1,  0,  0,  1,  1,  100,  9999,  -9999,  1,  1
0 / END OF GENERATOR DATA, BEGIN BRANCH DATA
  9005,  9001,  '1',  0.0008,  0.00348,   0,      0,  0,  0,  0,  0,  0,  0,  1,  0,  1,  1
  9007,  9006,  '1',  0.05558,  0.24666,  0,      0,  0,  0,  0,  0,  0,  0,  1,  0,  1,  1
  9003,  9006,  '1',  0.11118,  0.49332,  0,      0,  0,  0,  0,  0,  0,  0,  1,  0,  1,  1
  9003,  9006,  '2',  0.11118,  0.49332,  0,      0,  0,  0,  0,  0,  0,  0,  1,  0,  1,  1
  9002,  9012,  '1',  0.07622,  0.43286,  0,      0,  0,  0,  0,  0,  0,  0,  1,  0,  1,  1
  9002,  9012,  '2',  0.07622,  0.43286,  0,      0,  0,  0,  0,  0,  0,  0,  1,  0,  1,  1
  9021,  9002,  '1',  0.0537,   0.07026,  0,      0,  0,  0,  0,  0,  0,  0,  1,  0,  1,  1
  9023,  9021,  '1',  1.1068,   0.95278,  0,      0,  0,  0,  0,  0,  0,  0,  1,  0,  1,  1
  9003,  9007,  '1',  0.0558,   0.24666,  0,      0,  0,  0,  0,  0,  0,  0,  1,  0,  1,  1
  9044,  9003,  '1',  0.07378,  0.06352,  0,      0,  0,  0,  0,  0,  0,  0,  1,  0,  1,  1
  9004,  9044,  '1',  0.03832,  0.02894,  0,      0,  0,  0,  0,  0,  0,  0,  1,  0,  1,  1
  9121,  9012,  '1',  0.23552,  0.99036,  0,      0,  0,  0,  0,  0,  0,  0,  1,  0,  1,  1
     5,     1,  '1',  0.001,    0.006,    0,      0,  0,  0,  0,  0,  0,  0,  1,  0,  1,  1
     6,     2,  '1',  0.001,    0.009,    0,      0,  0,  0,  0,  0,  0,  0,  1,  0,  1,  1
     8,     2,  '1',  0.006,    0.027,    0.054,  0,  0,  0,  0,  0,  0,  0,  1,  0,  1,  1
     7,     3,  '1',  0,        0.003,    0,      0,  0,  0,  0,  0,  0,  0,  1,  0,  1,  1
    19,     3,  '1',  0.008,    0.069,    0.139,  0,  0,  0,  0,  0,  0,  0,  1,  0,  1,  1
   150,     3,  '1',  0.001,    0.007,    0,      0,  0,  0,  0,  0,  0,  0,  1,  0,  1,  1
    16,     4,  '1',  0.002,    0.019,    1.127,  0,  0,  0,  0,  0,  0,  0,  1,  0,  1,  1
     9,     5,  '1',  0.006,    0.029,    0.018,  0,  0,  0,  0,  0,  0,  0,  1,  0,  1,  1
    12,     7,  '1',  0.001,    0.009,    0.07,   0,  0,  0,  0,  0,  0,  0,  1,  0,  1,  1
   131,     7,  '1',  0.001,    0.007,    0.014,  0,  0,  0,  0,  0,  0,  0,  1,  0,  1,  1
    11,     8,  '1',  0.013,    0.0595,   0.033,  0,  0,  0,  0,  0,  0,  0,  1,  0,  1,  1
    14,     8,  '1',  0.013,    0.042,    0.081,  0,  0,  0,  0,  0,  0,  0,  1,  0,  1,  1
    11,     9,  '1',  0.006,    0.027,    0.013,  0,  0,  0,  0,  0,  0,  0,  1,  0,  1,  1
    13,    11,  '1',  0.008,    0.034,    0.018,  0,  0,  0,  0,  0,  0,  0,  1,  0,  1,  1
    21,    12,  '1',  0.002,    0.015,    0.118,  0,  0,  0,  0,  0,  0,  0,  1,  0,  1,  1
    20,    13,  '1',  0.006,    0.034,    0.016,  0,  0,  0,  0,  0,  0,  0,  1,  0,  1,  1
    15,    14,  '1',  0.014,    0.042,    0.097,  0,  0,  0,  0,  0,  0,  0,  1,  0,  1,  1
    37,    15,  '1',  0.065,    0.248,    0.121,  0,  0,  0,  0,  0,  0,  0,  1,  0,  1,  1
    89,    15,  '1',  0.099,    0.248,    0.035,  0,  0,  0,  0,  0,  0,  0,  1,  0,  1,  1
    90,    15,  '1',  0.096,    0.363,    0.048,  0,  0,  0,  0,  0,  0,  0,  1,  0,  1,  1
    42,    16,  '1',  0.002,    0.022,    1.28,   0,  0,  0,  0,  0,  0,  0,  1,  0,  1,  1
    21,    19,  '1',  0.002,    0.018,    0.036,  0,  0,  0,  0,  0,  0,  0,  1,  0,  1,  1
    87,    19,  '1',  0.013,    0.08,     0.151,  0,  0,  0,  0,  0,  0,  0,  1,  0,  1,  1
    22,    20,  '1',  0.016,    0.033,    0.015,  0,  0,  0,  0,  0,  0,  0,  1,  0,  1,  1
    27,    20,  '1',  0.069,    0.186,    0.098,  0,  0,  0,  0,  0,  0,  0,  1,  0,  1,  1
    24,    21,  '1',  0.004,    0.034,    0.28,   0,  0,  0,  0,  0,  0,  0,  1,  0,  1,  1
    23,    22,  '1',  0.052,    0.111,    0.05,   0,  0,  0,  0,  0,  0,  0,  1,  0,  1,  1
    25,    23,  '1',  0.019,    0.039,    0.018,  0,  0,  0,  0,  0,  0,  0,  1,  0,  1,  1
   319,    24,  '1',  0.007,    0.068,    0.134,  0,  0,  0,  0,  0,  0,  0,  1,  0,  1,  1
    26,    25,  '1',  0.036,    0.071,    0.034,  0,  0,  0,  0,  0,  0,  0,  1,  0,  1,  1
    27,    26,  '1',  0.045,    0.12,     0.065,  0,  0,  0,  0,  0,  0,  0,  1,  0,  1,  1
   320,    26,  '1',  0.043,    0.13,     0.014,  0,  0,  0,  0,  0,  0,  0,  1,  0,  1,  1
    34,    33,  '1',  0,        0.063,    0,      0,  0,  0,  0,  0,  0,  0,  1,  0,  1,  1
    38,    33,  '1',  0.0025,   0.012,    0.013,  0,  0,  0,  0,  0,  0,  0,  1,  0,  1,  1
    40,    33,  '1',  0.006,    0.029,    0.02,   0,  0,  0,  0,  0,  0,  0,  1,  0,  1,  1
    41,    33,  '1',  0.007,    0.043,    0.026,  0,  0,  0,  0,  0,  0,  0,  1,  0,  1,  1
    42,    34,  '1',  0.001,    0.008,    0.042,  0,  0,  0,  0,  0,  0,  0,  1,  0,  1,  1
    72,    35,  '1',  0.012,    0.06,     0.008,  0,  0,  0,  0,  0,  0,  0,  1,  0,  1,  1
    76,    35,  '1',  0.006,    0.014,    0.002,  0,  0,  0,  0,  0,  0,  0,  1,  0,  1,  1
    77,    35,  '1',  0.01,     0.029,    0.003,  0,  0,  0,  0,  0,  0,  0,  1,  0,  1,  1
    88,    36,  '1',  0.004,    0.027,    0.043,  0,  0,  0,  0,  0,  0,  0,  1,  0,  1,  1
    38,    37,  '1',  0.008,    0.047,    0.008,  0,  0,  0,  0,  0,  0,  0,  1,  0,  1,  1
    40,    37,  '1',  0.022,    0.064,    0.007,  0,  0,  0,  0,  0,  0,  0,  1,  0,  1,  1
    41,    37,  '1',  0.01,     0.036,    0.02,   0,  0,  0,  0,  0,  0,  0,  1,  0,  1,  1
    49,    37,  '1',  0.017,    0.081,    0.048,  0,  0,  0,  0,  0,  0,  0,  1,  0,  1,  1
    89,    37,  '1',  0.102,    0.254,    0.033,  0,  0,  0,  0,  0,  0,  0,  1,  0,  1,  1
    90,    37,  '1',  0.047,    0.127,    0.016,  0,  0,  0,  0,  0,  0,  0,  1,  0,  1,  1
    41,    38,  '1',  0.008,    0.037,    0.02,   0,  0,  0,  0,  0,  0,  0,  1,  0,  1,  1
    43,    38,  '1',  0.032,    0.087,    0.04,   0,  0,  0,  0,  0,  0,  0,  1,  0,  1,  1
    42,    39,  '1',  0.0006,   0.0064,   0.404,  0,  0,  0,  0,  0,  0,  0,  1,  0,  1,  1
    48,    40,  '1',  0.026,    0.154,    0.022,  0,  0,  0,  0,  0,  0,  0,  1,  0,  1,  1
    42,    41,  '1',  0,        0.029,    0,      0,  0,  0,  0,  0,  0,  0,  1,  0,  1,  1
    49,    41,  '1',  0.065,    0.191,    0.02,   0,  0,  0,  0,  0,  0,  0,  1,  0,  1,  1
    51,    41,  '1',  0.031,    0.089,    0.036,  0,  0,  0,  0,  0,  0,  0,  1,  0,  1,  1
    46,    42,  '1',  0.002,    0.014,    0.806,  0,  0,  0,  0,  0,  0,  0,  1,  0,  1,  1
    44,    43,  '1',  0.026,    0.072,    0.035,  0,  0,  0,  0,  0,  0,  0,  1,  0,  1,  1
    48,    43,  '1',  0.095,    0.262,    0.032,  0,  0,  0,  0,  0,  0,  0,  1,  0,  1,  1
    53,    43,  '1',  0.013,    0.039,    0.016,  0,  0,  0,  0,  0,  0,  0,  1,  0,  1,  1
    47,    44,  '1',  0.027,    0.084,    0.039,  0,  0,  0,  0,  0,  0,  0,  1,  0,  1,  1
    54,    44,  '1',  0.028,    0.084,    0.037,  0,  0,  0,  0,  0,  0,  0,  1,  0,  1,  1
    60,    45,  '1',  0.007,    0.041,    0.312,  0,  0,  0,  0,  0,  0,  0,  1,  0,  1,  1
    74,    45,  '1',  0.009,    0.054,    0.411,  0,  0,  0,  0,  0,  0,  0,  1,  0,  1,  1
    81,    46,  '1',  0.005,    0.042,    0.69,   0,  0,  0,  0,  0,  0,  0,  1,  0,  1,  1
    73,    47,  '1',  0.052,    0.145,    0.073,  0,  0,  0,  0,  0,  0,  0,  1,  0,  1,  1
   113,    47,  '1',  0.043,    0.118,    0.013,  0,  0,  0,  0,  0,  0,  0,  1,  0,  1,  1
   107,    48,  '1',  0.025,    0.062,    0.007,  0,  0,  0,  0,  0,  0,  0,  1,  0,  1,  1
    51,    49,  '1',  0.031,    0.094,    0.043,  0,  0,  0,  0,  0,  0,  0,  1,  0,  1,  1
    52,    51,  '1',  0.037,    0.109,    0.049,  0,  0,  0,  0,  0,  0,  0,  1,  0,  1,  1
    55,    52,  '1',  0.027,    0.08,     0.036,  0,  0,  0,  0,  0,  0,  0,  1,  0,  1,  1
    54,    53,  '1',  0.025,    0.073,    0.035,  0,  0,  0,  0,  0,  0,  0,  1,  0,  1,  1
    55,    54,  '1',  0.035,    0.103,    0.047,  0,  0,  0,  0,  0,  0,  0,  1,  0,  1,  1
    57,    55,  '1',  0.065,    0.169,    0.082,  0,  0,  0,  0,  0,  0,  0,  1,  0,  1,  1
    58,    57,  '1',  0.046,    0.08,     0.036,  0,  0,  0,  0,  0,  0,  0,  1,  0,  1,  1
    63,    57,  '1',  0.159,    0.537,    0.071,  0,  0,  0,  0,  0,  0,  0,  1,  0,  1,  1
    59,    58,  '1',  0.009,    0.026,    0.005,  0,  0,  0,  0,  0,  0,  0,  1,  0,  1,  1
    61,    59,  '1',  0.002,    0.013,    0.015,  0,  0,  0,  0,  0,  0,  0,  1,  0,  1,  1
    62,    60,  '1',  0.009,    0.065,    0.485,  0,  0,  0,  0,  0,  0,  0,  1,  0,  1,  1
    64,    62,  '1',  0.016,    0.105,    0.203,  0,  0,  0,  0,  0,  0,  0,  1,  0,  1,  1
   144,    62,  '1',  0.001,    0.007,    0.013,  0,  0,  0,  0,  0,  0,  0,  1,  0,  1,  1
   526,    63,  '1',  0.0265,   0.172,    0.026,  0,  0,  0,  0,  0,  0,  0,  1,  0,  1,  1
   211,    69,  '1',  0.051,    0.232,    0.028,  0,  0,  0,  0,  0,  0,  0,  1,  0,  1,  1
    79,    69,  '1',  0.051,    0.157,    0.023,  0,  0,  0,  0,  0,  0,  0,  1,  0,  1,  1
    71,    70,  '1',  0.032,    0.1,      0.062,  0,  0,  0,  0,  0,  0,  0,  1,  0,  1,  1
   528,    70,  '1',  0.02,     0.1234,   0.028,  0,  0,  0,  0,  0,  0,  0,  1,  0,  1,  1
    72,    71,  '1',  0.036,    0.131,    0.068,  0,  0,  0,  0,  0,  0,  0,  1,  0,  1,  1
    73,    71,  '1',  0.034,    0.099,    0.047,  0,  0,  0,  0,  0,  0,  0,  1,  0,  1,  1
    77,    72,  '1',  0.018,    0.087,    0.011,  0,  0,  0,  0,  0,  0,  0,  1,  0,  1,  1
   531,    72,  '1',  0.0256,   0.193,    0,      0,  0,  0,  0,  0,  0,  0,  1,  0,  1,  1
    76,    73,  '1',  0.021,    0.057,    0.03,   0,  0,  0,  0,  0,  0,  0,  1,  0,  1,  1
    79,    73,  '1',  0.018,    0.052,    0.018,  0,  0,  0,  0,  0,  0,  0,  1,  0,  1,  1
    88,    74,  '1',  0.004,    0.027,    0.05,   0,  0,  0,  0,  0,  0,  0,  1,  0,  1,  1
   562,    74,  '1',  0.0286,   0.2013,   0.379,  0,  0,  0,  0,  0,  0,  0,  1,  0,  1,  1
    77,    76,  '1',  0.016,    0.043,    0.004,  0,  0,  0,  0,  0,  0,  0,  1,  0,  1,  1
    78,    77,  '1',  0.001,    0.006,    0.007,  0,  0,  0,  0,  0,  0,  0,  1,  0,  1,  1
    80,    77,  '1',  0.014,    0.07,     0.038,  0,  0,  0,  0,  0,  0,  0,  1,  0,  1,  1
   552,    77,  '1',  0.0891,   0.2676,   0.029,  0,  0,  0,  0,  0,  0,  0,  1,  0,  1,  1
   609,    77,  '1',  0.0782,   0.2127,   0.022,  0,  0,  0,  0,  0,  0,  0,  1,  0,  1,  1
    79,    78,  '1',  0.006,    0.022,    0.011,  0,  0,  0,  0,  0,  0,  0,  1,  0,  1,  1
    84,    78,  '1',  0,        0.036,    0,      0,  0,  0,  0,  0,  0,  0,  1,  0,  1,  1
   211,    79,  '1',  0.099,    0.375,    0.051,  0,  0,  0,  0,  0,  0,  0,  1,  0,  1,  1
   211,    80,  '1',  0.022,    0.107,    0.058,  0,  0,  0,  0,  0,  0,  0,  1,  0,  1,  1
   194,    81,  '1',  0.0035,   0.033,    0.53,   0,  0,  0,  0,  0,  0,  0,  1,  0,  1,  1
   195,    81,  '1',  0.0035,   0.033,    0.53,   0,  0,  0,  0,  0,  0,  0,  1,  0,  1,  1
    86,    85,  '1',  0.008,    0.064,    0.128,  0,  0,  0,  0,  0,  0,  0,  1,  0,  1,  1
    87,    86,  '1',  0.012,    0.093,    0.183,  0,  0,  0,  0,  0,  0,  0,  1,  0,  1,  1
   323,    86,  '1',  0.006,    0.048,    0.092,  0,  0,  0,  0,  0,  0,  0,  1,  0,  1,  1
    91,    89,  '1',  0.047,    0.119,    0.014,  0,  0,  0,  0,  0,  0,  0,  1,  0,  1,  1
    92,    90,  '1',  0.032,    0.174,    0.024,  0,  0,  0,  0,  0,  0,  0,  1,  0,  1,  1
    94,    91,  '1',  0.1,      0.253,    0.031,  0,  0,  0,  0,  0,  0,  0,  1,  0,  1,  1
    97,    91,  '1',  0.022,    0.077,    0.039,  0,  0,  0,  0,  0,  0,  0,  1,  0,  1,  1
   103,    92,  '1',  0.019,    0.144,    0.017,  0,  0,  0,  0,  0,  0,  0,  1,  0,  1,  1
   105,    92,  '1',  0.017,    0.092,    0.012,  0,  0,  0,  0,  0,  0,  0,  1,  0,  1,  1
    97,    94,  '1',  0.278,    0.427,    0.043,  0,  0,  0,  0,  0,  0,  0,  1,  0,  1,  1
   100,    97,  '1',  0.022,    0.053,    0.007,  0,  0,  0,  0,  0,  0,  0,  1,  0,  1,  1
   102,    97,  '1',  0.038,    0.092,    0.012,  0,  0,  0,  0,  0,  0,  0,  1,  0,  1,  1
   103,    97,  '1',  0.048,    0.122,    0.015,  0,  0,  0,  0,  0,  0,  0,  1,  0,  1,  1
   100,    98,  '1',  0.024,    0.064,    0.007,  0,  0,  0,  0,  0,  0,  0,  1,  0,  1,  1
   102,    98,  '1',  0.034,    0.121,    0.015,  0,  0,  0,  0,  0,  0,  0,  1,  0,  1,  1
   107,    99,  '1',  0.053,    0.135,    0.017,  0,  0,  0,  0,  0,  0,  0,  1,  0,  1,  1
   108,    99,  '1',  0.002,    0.004,    0.002,  0,  0,  0,  0,  0,  0,  0,  1,  0,  1,  1
   109,    99,  '1',  0.045,    0.354,    0.044,  0,  0,  0,  0,  0,  0,  0,  1,  0,  1,  1
   110,    99,  '1',  0.05,     0.174,    0.022,  0,  0,  0,  0,  0,  0,  0,  1,  0,  1,  1
   102,   100,  '1',  0.016,    0.038,    0.004,  0,  0,  0,  0,  0,  0,  0,  1,  0,  1,  1
   104,   102,  '1',  0.043,    0.064,    0.027,  0,  0,  0,  0,  0,  0,  0,  1,  0,  1,  1
   105,   103,  '1',  0.019,    0.062,    0.008,  0,  0,  0,  0,  0,  0,  0,  1,  0,  1,  1
   108,   104,  '1',  0.076,    0.13,     0.044,  0,  0,  0,  0,  0,  0,  0,  1,  0,  1,  1
   322,   104,  '1',  0.044,    0.124,    0.015,  0,  0,  0,  0,  0,  0,  0,  1,  0,  1,  1
   107,   105,  '1',  0.012,    0.088,    0.011,  0,  0,  0,  0,  0,  0,  0,  1,  0,  1,  1
   110,   105,  '1',  0.157,    0.4,      0.047,  0,  0,  0,  0,  0,  0,  0,  1,  0,  1,  1
   324,   108,  '1',  0.074,    0.208,    0.026,  0,  0,  0,  0,  0,  0,  0,  1,  0,  1,  1
   110,   109,  '1',  0.07,     0.184,    0.021,  0,  0,  0,  0,  0,  0,  0,  1,  0,  1,  1
   113,   109,  '1',  0.1,      0.274,    0.031,  0,  0,  0,  0,  0,  0,  0,  1,  0,  1,  1
   114,   109,  '1',  0.109,    0.393,    0.036,  0,  0,  0,  0,  0,  0,  0,  1,  0,  1,  1
   112,   110,  '1',  0.142,    0.404,    0.05,   0,  0,  0,  0,  0,  0,  0,  1,  0,  1,  1
   114,   112,  '1',  0.017,    0.042,    0.006,  0,  0,  0,  0,  0,  0,  0,  1,  0,  1,  1
   122,   115,  '1',  0.0036,   0.0199,   0.004,  0,  0,  0,  0,  0,  0,  0,  1,  0,  1,  1
   120,   116,  '1',  0.002,    0.1049,   0.001,  0,  0,  0,  0,  0,  0,  0,  1,  0,  1,  1
   118,   117,  '1',  0.0001,   0.0018,   0.017,  0,  0,  0,  0,  0,  0,  0,  1,  0,  1,  1
   119,   118,  '1',  0,        0.0271,   0,      0,  0,  0,  0,  0,  0,  0,  1,  0,  1,  1
  1201,   118,  '1',  0,        0.6163,   0,      0,  0,  0,  0,  0,  0,  0,  1,  0,  1,  1
   120,  1201,  '1',  0,        -0.3697,  0,      0,  0,  0,  0,  0,  0,  0,  1,  0,  1,  1
   121,   118,  '1',  0.0022,   0.2915,   0,      0,  0,  0,  0,  0,  0,  0,  1,  0,  1,  1
   120,   119,  '1',  0,        0.0339,   0,      0,  0,  0,  0,  0,  0,  0,  1,  0,  1,  1
   121,   119,  '1',  0,        0.0582,   0,      0,  0,  0,  0,  0,  0,  0,  1,  0,  1,  1
   123,   122,  '1',  0.0808,   0.2344,   0.029,  0,  0,  0,  0,  0,  0,  0,  1,  0,  1,  1
   125,   122,  '1',  0.0965,   0.3669,   0.054,  0,  0,  0,  0,  0,  0,  0,  1,  0,  1,  1
   124,   123,  '1',  0.036,    0.1076,   0.117,  0,  0,  0,  0,  0,  0,  0,  1,  0,  1,  1
   125,   123,  '1',  0.0476,   0.1414,   0.149,  0,  0,  0,  0,  0,  0,  0,  1,  0,  1,  1
   126,   125,  '1',  0.0006,   0.0197,   0,      0,  0,  0,  0,  0,  0,  0,  1,  0,  1,  1
   127,   126,  '1',  0.0059,   0.0405,   0.25,   0,  0,  0,  0,  0,  0,  0,  1,  0,  1,  1
   129,   126,  '1',  0.0115,   0.1106,   0.185,  0,  0,  0,  0,  0,  0,  0,  1,  0,  1,  1
   132,   126,  '1',  0.0198,   0.1688,   0.321,  0,  0,  0,  0,  0,  0,  0,  1,  0,  1,  1
   157,   126,  '1',  0.005,    0.05,     0.33,   0,  0,  0,  0,  0,  0,  0,  1,  0,  1,  1
   158,   126,  '1',  0.0077,   0.0538,   0.335,  0,  0,  0,  0,  0,  0,  0,  1,  0,  1,  1
   169,   126,  '1',  0.0165,   0.1157,   0.171,  0,  0,  0,  0,  0,  0,  0,  1,  0,  1,  1
   128,   127,  '1',  0.0059,   0.0577,   0.095,  0,  0,  0,  0,  0,  0,  0,  1,  0,  1,  1
   134,   127,  '1',  0.0049,   0.0336,   0.208,  0,  0,  0,  0,  0,  0,  0,  1,  0,  1,  1
   168,   127,  '1',  0.0059,   0.0577,   0.095,  0,  0,  0,  0,  0,  0,  0,  1,  0,  1,  1
   130,   128,  '1',  0.0078,   0.0773,   0.126,  0,  0,  0,  0,  0,  0,  0,  1,  0,  1,  1
   133,   128,  '1',  0.0026,   0.0193,   0.03,   0,  0,  0,  0,  0,  0,  0,  1,  0,  1,  1
   130,   129,  '1',  0.0076,   0.0752,   0.122,  0,  0,  0,  0,  0,  0,  0,  1,  0,  1,  1
   133,   129,  '1',  0.0021,   0.0186,   0.03,   0,  0,  0,  0,  0,  0,  0,  1,  0,  1,  1
   132,   130,  '1',  0.0016,   0.0164,   0.026,  0,  0,  0,  0,  0,  0,  0,  1,  0,  1,  1
   151,   130,  '1',  0.0017,   0.0165,   0.026,  0,  0,  0,  0,  0,  0,  0,  1,  0,  1,  1
   167,   130,  '1',  0.0079,   0.0793,   0.127,  0,  0,  0,  0,  0,  0,  0,  1,  0,  1,  1
   168,   130,  '1',  0.0078,   0.0784,   0.125,  0,  0,  0,  0,  0,  0,  0,  1,  0,  1,  1
   137,   133,  '1',  0.0017,   0.0117,   0.289,  0,  0,  0,  0,  0,  0,  0,  1,  0,  1,  1
   168,   133,  '1',  0.0026,   0.0193,   0.03,   0,  0,  0,  0,  0,  0,  0,  1,  0,  1,  1
   169,   133,  '1',  0.0021,   0.0186,   0.03,   0,  0,  0,  0,  0,  0,  0,  1,  0,  1,  1
   171,   133,  '1',  0.0002,   0.0101,   0,      0,  0,  0,  0,  0,  0,  0,  1,  0,  1,  1
   135,   134,  '1',  0.0043,   0.0293,   0.18,   0,  0,  0,  0,  0,  0,  0,  1,  0,  1,  1
   184,   134,  '1',  0.0039,   0.0381,   0.258,  0,  0,  0,  0,  0,  0,  0,  1,  0,  1,  1
   136,   135,  '1',  0.0091,   0.0623,   0.385,  0,  0,  0,  0,  0,  0,  0,  1,  0,  1,  1
   137,   136,  '1',  0.0125,   0.089,    0.54,   0,  0,  0,  0,  0,  0,  0,  1,  0,  1,  1
   152,   136,  '1',  0.0056,   0.039,    0.953,  0,  0,  0,  0,  0,  0,  0,  1,  0,  1,  1
   140,   137,  '1',  0.0015,   0.0114,   0.284,  0,  0,  0,  0,  0,  0,  0,  1,  0,  1,  1
   181,   137,  '1',  0.0005,   0.0034,   0.021,  0,  0,  0,  0,  0,  0,  0,  1,  0,  1,  1
   186,   137,  '1',  0.0007,   0.0151,   0.126,  0,  0,  0,  0,  0,  0,  0,  1,  0,  1,  1
   188,   137,  '1',  0.0005,   0.0034,   0.021,  0,  0,  0,  0,  0,  0,  0,  1,  0,  1,  1
   172,   139,  '1',  0.0562,   0.2248,   0.081,  0,  0,  0,  0,  0,  0,  0,  1,  0,  1,  1
   141,   140,  '1',  0.012,    0.0836,   0.123,  0,  0,  0,  0,  0,  0,  0,  1,  0,  1,  1
   142,   140,  '1',  0.0152,   0.1132,   0.684,  0,  0,  0,  0,  0,  0,  0,  1,  0,  1,  1
   145,   140,  '1',  0.0468,   0.3369,   0.519,  0,  0,  0,  0,  0,  0,  0,  1,  0,  1,  1
   146,   140,  '1',  0.043,    0.3031,   0.463,  0,  0,  0,  0,  0,  0,  0,  1,  0,  1,  1
   147,   140,  '1',  0.0489,   0.3492,   0.538,  0,  0,  0,  0,  0,  0,  0,  1,  0,  1,  1
   182,   140,  '1',  0.0013,   0.0089,   0.119,  0,  0,  0,  0,  0,  0,  0,  1,  0,  1,  1
   146,   141,  '1',  0.0291,   0.2267,   0.342,  0,  0,  0,  0,  0,  0,  0,  1,  0,  1,  1
   143,   142,  '1',  0.006,    0.057,    0.767,  0,  0,  0,  0,  0,  0,  0,  1,  0,  1,  1
...
0 / END OF BRANCH DATA, BEGIN TRANSFORMER DATA
9005,  9051,  0,'1',1,1,1,  0,  0,  2,  '  bus ',1,  1,  1
    0.01578,  0.37486,  100
    1.0435,  0,  0,  0,  0,  0,  0,  0,  1.1,  0.9,  1.1,  0.9,  33,  0,  0,  0
    1,  0
9005,  9053,  0,'1',1,1,1,  0,  0,  2,  '    ',1,  1,  1
    0.01602,  0.38046,  100
    1.0435,  0,  0,  0,  0,  0,  0,  0,  1.1,  0.9,  1.1,  0.9,  33,  0,  0,  0
    1,  0
9005,  9054,  0,'1',1,1,1,  0,  0,  2,  '    ',1,  1,  1
    0,  0.152,  100
    1.0435,  0,  0,  0,  0,  0,  0,  0,  1.1,  0.9,  1.1,  0.9,  33,  0,  0,  0
    1,  0
9005,  9055,  0,'1',1,1,1,  0,  0,  2,  '    ',1,  1,  1
    0,  0.8,  100
    1.0435,  0,  0,  0,  0,  0,  0,  0,  1.1,  0.9,  1.1,  0.9,  33,  0,  0,  0
    1,  0
9021,  9022,  0,'1',1,1,1,  0,  0,  2,  '    ',1,  1,  1
    0.44364,  2.8152,  100
    1,  0,  0,  0,  0,  0,  0,  0,  1.1,  0.9,  1.1,  0.9,  33,  0,  0,  0
    1,  0
9002,  9024,  0,'1',1,1,1,  0,  0,  2,  '    ',1,  1,  1
    0.50748,  3.2202,  100
    1,  0,  0,  0,  0,  0,  0,  0,  1.1,  0.9,  1.1,  0.9,  33,  0,  0,  0
    1,  0
9023,  9025,  0,'1',1,1,1,  0,  0,  2,  '    ',1,  1,  1
    0.66688,  3.944,  100
    1,  0,  0,  0,  0,  0,  0,  0,  1.1,  0.9,  1.1,  0.9,  33,  0,  0,  0
    1,  0
9023,  9026,  0,'1',1,1,1,  0,  0,  2,  '    ',1,  1,  1
    0.6113,  3.6152,  100
    1,  0,  0,  0,  0,  0,  0,  0,  1.1,  0.9,  1.1,  0.9,  33,  0,  0,  0
    1,  0
9007,  9071,  0,'1',1,1,1,  0,  0,  2,  '    ',1,  1,  1
    0.4412,  2.9668,  100
    1,  0,  0,  0,  0,  0,  0,  0,  1.1,  0.9,  1.1,  0.9,  33,  0,  0,  0
    1,  0
9007,  9072,  0,'1',1,1,1,  0,  0,  2,  '    ',1,  1,  1
    0.30792,  2.057,  100
    1,  0,  0,  0,  0,  0,  0,  0,  1.1,  0.9,  1.1,  0.9,  33,  0,  0,  0
    1,  0
9003,  9031,  0,'1',1,1,1,  0,  0,  2,  '    ',1,  1,  1
    0.73633,  4.6724,  100
    1,  0,  0,  0,  0,  0,  0,  0,  1.1,  0.9,  1.1,  0.9,  33,  0,  0,  0
    1,  0
9003,  9032,  0,'1',1,1,1,  0,  0,  2,  '    ',1,  1,  1
    0.76978,  4.8846,  100
    1,  0,  0,  0,  0,  0,  0,  0,  1.1,  0.9,  1.1,  0.9,  33,  0,  0,  0
    1,  0
9003,  9033,  0,'1',1,1,1,  0,  0,  2,  '    ',1,  1,  1
    0.75732,  4.8056,  100
    1,  0,  0,  0,  0,  0,  0,  0,  1.1,  0.9,  1.1,  0.9,  33,  0,  0,  0
    1,  0
9004,  9041,  0,'1',1,1,1,  0,  0,  2,  '    ',1,  1,  1
    0.36614,  2.456,  100
    1,  0,  0,  0,  0,  0,  0,  0,  1.1,  0.9,  1.1,  0.9,  33,  0,  0,  0
    1,  0
9004,  9042,  0,'1',1,1,1,  0,  0,  2,  '    ',1,  1,  1
    1.0593,  5.4536,  100
    1,  0,  0,  0,  0,  0,  0,  0,  1.1,  0.9,  1.1,  0.9,  33,  0,  0,  0
    1,  0
9004,  9043,  0,'1',1,1,1,  0,  0,  2,  '    ',1,  1,  1
    0.1567,  1.6994,  100
    1,  0,  0,  0,  0,  0,  0,  0,  1.1,  0.9,  1.1,  0.9,  33,  0,  0,  0
    1,  0
9003,  9034,  0,'1',1,1,1,  0,  0,  2,  '    ',1,  1,  1
    0.13006,  1.3912,  100
    1,  0,  0,  0,  0,  0,  0,  0,  1.1,  0.9,  1.1,  0.9,  33,  0,  0,  0
    1,  0
9003,  9035,  0,'1',1,1,1,  0,  0,  2,  '    ',1,  1,  1
    0.54484,  3.4572,  100
    1,  0,  0,  0,  0,  0,  0,  0,  1.1,  0.9,  1.1,  0.9,  33,  0,  0,  0
    1,  0
9003,  9036,  0,'1',1,1,1,  0,  0,  2,  '    ',1,  1,  1
    0.15426,  1.6729,  100
    1,  0,  0,  0,  0,  0,  0,  0,  1.1,  0.9,  1.1,  0.9,  33,  0,  0,  0
    1,  0
9003,  9037,  0,'1',1,1,1,  0,  0,  2,  '    ',1,  1,  1
    0.3849,  2.5712,  100
    1,  0,  0,  0,  0,  0,  0,  0,  1.1,  0.9,  1.1,  0.9,  33,  0,  0,  0
    1,  0
9003,  9038,  0,'1',1,1,1,  0,  0,  2,  '    ',1,  1,  1
    0.4412,  2.9668,  100
    1,  0,  0,  0,  0,  0,  0,  0,  1.1,  0.9,  1.1,  0.9,  33,  0,  0,  0
    1,  0
9053,  9533,  0,'1',1,1,1,  0,  0,  2,  '    ',1,  1,  1
    0,  0.75,  100
    0.9583,  0,  0,  0,  0,  0,  0,  0,  1.1,  0.9,  1.1,  0.9,  33,  0,  0,  0
    1,  0
213,  214,  0,'1',1,1,1,  0,  0,  2,  '    ',1,  1,  1
    0.0025,  0.038,  100
    1,  0,  0,  0,  0,  0,  0,  0,  1.1,  0.9,  1.1,  0.9,  33,  0,  0,  0
    1,  0
237,  222,  0,'1',1,1,1,  0,  0,  2,  '    ',1,  1,  1
    0.0514,  0.0514,  100
    1,  0,  0,  0,  0,  0,  0,  0,  1.1,  0.9,  1.1,  0.9,  33,  0,  0,  0
    1,  0
231,  227,  0,'1',1,1,1,  0,  0,  2,  '    ',1,  1,  1
    0.0472,  0.0472,  100
    1,  0,  0,  0,  0,  0,  0,  0,  1.1,  0.9,  1.1,  0.9,  33,  0,  0,  0
    1,  0
241,  237,  0,'1',1,1,1,  0,  0,  2,  '    ',1,  1,  1
    0.0005,  0.0154,  100
    1,  0,  0,  0,  0,  0,  0,  0,  1.1,  0.9,  1.1,  0.9,  33,  0,  0,  0
    1,  0
12,  10,  0,'1',1,1,1,  0,  0,  2,  '    ',1,  1,  1
    0,  0.053,  100
    0.985,  0,  0,  0,  0,  0,  0,  0,  1.1,  0.9,  1.1,  0.9,  33,  0,  0,  0
    1,  0
21,  20,  0,'1',1,1,1,  0,  0,  2,  '    ',1,  1,  1
    0,  0.014,  100
    0.952,  0,  0,  0,  0,  0,  0,  0,  1.1,  0.9,  1.1,  0.9,  33,  0,  0,  0
    1,  0
116,  124,  0,'1',1,1,1,  0,  0,  2,  '    ',1,  1,  1
    0.0052,  0.0174,  100
    1.01,  0,  0,  0,  0,  0,  0,  0,  1.1,  0.9,  1.1,  0.9,  33,  0,  0,  0
    1,  0
132,  170,  0,'1',1,1,1,  0,  0,  2,  '    ',1,  1,  1
    0.001,  0.0402,  100
    1.05,  0,  0,  0,  0,  0,  0,  0,  1.1,  0.9,  1.1,  0.9,  33,  0,  0,  0
    1,  0
151,  170,  0,'1',1,1,1,  0,  0,  2,  '    ',1,  1,  1
    0.001,  0.0392,  100
    1.05,  0,  0,  0,  0,  0,  0,  0,  1.1,  0.9,  1.1,  0.9,  33,  0,  0,  0
    1,  0
155,  156,  0,'1',1,1,1,  0,  0,  2,  '    ',1,  1,  1
    0.0008,  0.0256,  100
    1.05,  0,  0,  0,  0,  0,  0,  0,  1.1,  0.9,  1.1,  0.9,  33,  0,  0,  0
    1,  0
160,  124,  0,'1',1,1,1,  0,  0,  2,  '    ',1,  1,  1
    0.0012,  0.0396,  100
    0.975,  0,  0,  0,  0,  0,  0,  0,  1.1,  0.9,  1.1,  0.9,  33,  0,  0,  0
...